test/data/three_phase/just_two_transformers/node.glm
// An infinite source, transformers, and a PQ load

/////////////////////////////////////////////
// BEGIN
/////////////////////////////////////////////



module powerflow {
    solver_method NR;
};

// object voltdump {
//     filename voltage.csv;
// 	mode RECT;
// }

object transformer_configuration:400 {
    connect_type 1;
    power_rating 6000;
    powerA_rating 2000;
    powerB_rating 2000;
    powerC_rating 2000;
    primary_voltage 12470;
    secondary_voltage 4160;
    resistance 0.01;
    reactance 0.06;
}

object transformer_configuration:450 {
    connect_type 1;
    power_rating 6000;
    powerA_rating 2000;
    powerB_rating 2000;
    powerC_rating 2000;
    primary_voltage 4160;
    secondary_voltage 12470;
    resistance 0.01;
    reactance 0.06;
}

object node {
    name node1;
    phases "ABCN";
    nominal_voltage 7200;
    bustype SWING;
}

object transformer:12 {
    phases "ABCN";
    from node1;
    to node2;
    configuration transformer_configuration:400;
}


object node {
    name node2;
    phases "ABCN";
    nominal_voltage 2400;
}

object transformer:21 {
    phases "ABCN";
    from node2;
    to load1;
    configuration transformer_configuration:450;
}

object load {
    name load1;
    phases "ABCN";
    constant_power_A +1800000.000+871779.789j;
    constant_power_B +1800000.000+871779.789j;
    constant_power_C +1800000.000+871779.789j;
    nominal_voltage 7200;
    bustype PQ;
}


object voltdump {
     filename result.csv;
     mode RECT;
}



clock {
	timezone EST+8EDT;
	timestamp '2000-01-01 0:00:00';
	stoptime '2000-01-01 0:00:01';
}
